Version 4
SHEET 1 2404 1924
WIRE 656 -64 608 -64
WIRE 784 -64 736 -64
WIRE 608 64 608 -64
WIRE 672 64 608 64
WIRE 784 64 784 -64
WIRE 784 64 736 64
WIRE 1552 144 1456 144
WIRE -144 176 -320 176
WIRE 272 176 -80 176
WIRE 480 192 336 192
WIRE 608 192 608 64
WIRE 608 192 560 192
WIRE 672 192 608 192
WIRE 272 208 -48 208
WIRE 784 208 784 64
WIRE 784 208 736 208
WIRE 1200 208 784 208
WIRE 1552 208 1552 144
WIRE 1888 208 1552 208
WIRE 2080 208 1888 208
WIRE 2336 208 2144 208
WIRE 672 224 592 224
WIRE 1200 272 1104 272
WIRE 1680 272 1456 272
WIRE -320 320 -320 176
WIRE 2336 320 2336 208
WIRE 592 336 592 224
WIRE 1520 336 1456 336
WIRE 1104 400 1104 272
WIRE 1680 400 1680 272
WIRE -48 416 -48 208
WIRE 1520 432 1520 336
WIRE 1888 640 1888 208
WIRE 1888 640 848 640
WIRE -48 832 -48 480
WIRE 0 832 -48 832
WIRE 112 832 0 832
WIRE 272 832 112 832
WIRE 0 880 0 832
WIRE 112 880 112 832
WIRE 272 928 208 928
WIRE 544 928 464 928
WIRE 544 960 544 928
WIRE 112 976 112 944
WIRE 0 992 0 960
WIRE 208 1104 208 928
WIRE 848 1104 848 640
WIRE 848 1104 208 1104
FLAG 512 -320 0
FLAG 400 -320 0
FLAG 512 -400 -5V
FLAG 400 -400 +5V
FLAG 704 176 +5V
FLAG 704 240 -5V
FLAG -320 400 0
FLAG 592 336 0
FLAG 1104 400 0
FLAG 1200 144 +5V
FLAG 304 160 -5V
FLAG 304 224 +5V
FLAG 1680 400 0
FLAG 1520 512 0
FLAG 2336 400 0
FLAG 1200 336 -5V
FLAG 368 736 +5V
FLAG 544 960 0
FLAG 432 1040 0
FLAG 464 800 -5V
FLAG 464 864 +5V
FLAG 304 1040 -5V
FLAG 0 992 0
FLAG 112 976 0
SYMBOL Comparators\\LT1394 1328 240 R0
SYMATTR InstName U2
SYMBOL voltage 512 -416 R0
WINDOW 123 0 0 Left 0
WINDOW 39 0 0 Left 0
SYMATTR InstName V1
SYMATTR Value -5
SYMBOL voltage 400 -416 R0
WINDOW 123 0 0 Left 0
WINDOW 39 0 0 Left 0
SYMATTR InstName V2
SYMATTR Value 5
SYMBOL Opamps\\OP27 704 144 R0
SYMATTR InstName U4
SYMBOL cap 736 48 R90
WINDOW 0 0 32 VBottom 2
WINDOW 3 32 32 VTop 2
SYMATTR InstName C4
SYMATTR Value 100pF
SYMBOL voltage -320 304 R0
WINDOW 39 0 0 Left 0
WINDOW 3 24 44 Left 2
SYMATTR Value SINE(0 2 100)
SYMATTR Value2 AC 1
SYMATTR InstName V6
SYMBOL Opamps\\OP27 304 256 M180
SYMATTR InstName U5
SYMBOL res 576 176 R90
WINDOW 0 0 56 VBottom 2
WINDOW 3 32 56 VTop 2
SYMATTR InstName R11
SYMATTR Value 100
SYMBOL voltage 1520 416 R0
WINDOW 39 0 0 Left 0
WINDOW 3 24 44 Left 2
SYMATTR Value PULSE(0 5 0 0 0 0.000005 1E-5)
SYMATTR Value2 AC 1
SYMATTR InstName V5
SYMBOL cap 2144 192 R90
WINDOW 0 0 32 VBottom 2
WINDOW 3 32 32 VTop 2
SYMATTR InstName C5
SYMATTR Value 1µF
SYMBOL res 2320 304 R0
SYMATTR InstName R9
SYMATTR Value 10K
SYMBOL cap -80 160 R90
WINDOW 0 0 32 VBottom 2
WINDOW 3 32 32 VTop 2
SYMATTR InstName C6
SYMATTR Value 10µF
SYMBOL Switches\\ADG1633 368 880 R0
SYMATTR InstName U8
SYMBOL cap -64 416 R0
SYMATTR InstName C7
SYMATTR Value 1pF
SYMBOL res 752 -80 R90
WINDOW 0 0 56 VBottom 2
WINDOW 3 32 56 VTop 2
SYMATTR InstName R10
SYMATTR Value 100
SYMBOL res -16 864 R0
SYMATTR InstName R12
SYMATTR Value 100
SYMBOL cap 96 880 R0
SYMATTR InstName C9
SYMATTR Value 35pF
TEXT 160 40 Left 2 ;.ac dec 100 1 1E6
TEXT 168 96 Left 2 !.tran 1
