Version 4
SHEET 1 2424 1924
WIRE 656 -64 608 -64
WIRE 784 -64 736 -64
WIRE 608 64 608 -64
WIRE 672 64 608 64
WIRE 784 64 784 -64
WIRE 784 64 736 64
WIRE 1552 144 1456 144
WIRE -192 176 -320 176
WIRE 272 176 -112 176
WIRE 608 192 608 64
WIRE 608 192 336 192
WIRE 672 192 608 192
WIRE 272 208 -48 208
WIRE 784 208 784 64
WIRE 784 208 736 208
WIRE 1200 208 784 208
WIRE 1552 208 1552 144
WIRE 1888 208 1552 208
WIRE 2080 208 1888 208
WIRE 2352 208 2160 208
WIRE 672 224 592 224
WIRE 1200 272 1104 272
WIRE 1680 272 1456 272
WIRE 2352 288 2352 208
WIRE -320 320 -320 176
WIRE 592 336 592 224
WIRE 1520 336 1456 336
WIRE -48 352 -48 208
WIRE 1104 400 1104 272
WIRE 1680 400 1680 272
WIRE 1520 432 1520 336
WIRE 1888 640 1888 208
WIRE 1888 640 848 640
WIRE -48 832 -48 432
WIRE 272 832 -48 832
WIRE 272 928 208 928
WIRE 544 928 464 928
WIRE 544 960 544 928
WIRE 208 1104 208 928
WIRE 848 1104 848 640
WIRE 848 1104 208 1104
FLAG 512 -320 0
FLAG 400 -320 0
FLAG 512 -400 -5V
FLAG 400 -400 +5V
FLAG 704 176 +5V
FLAG 704 240 -5V
FLAG -320 400 0
FLAG 592 336 0
FLAG 1104 400 0
FLAG 1200 144 +5V
FLAG 304 160 -5V
FLAG 304 224 +5V
FLAG 1680 400 0
FLAG 1520 512 0
FLAG 1200 336 -5V
FLAG 368 736 +5V
FLAG 544 960 0
FLAG 432 1040 0
FLAG 464 800 -5V
FLAG 464 864 +5V
FLAG 304 1040 -5V
FLAG 2352 352 0
SYMBOL Comparators\\LT1394 1328 240 R0
SYMATTR InstName U2
SYMBOL voltage 512 -416 R0
WINDOW 123 0 0 Left 0
WINDOW 39 0 0 Left 0
SYMATTR InstName V1
SYMATTR Value -5
SYMBOL voltage 400 -416 R0
WINDOW 123 0 0 Left 0
WINDOW 39 0 0 Left 0
SYMATTR InstName V2
SYMATTR Value 5
SYMBOL cap 736 48 R90
WINDOW 0 0 32 VBottom 2
WINDOW 3 32 32 VTop 2
SYMATTR InstName C4
SYMATTR Value 100pF
SYMBOL voltage -320 304 R0
WINDOW 39 0 0 Left 0
WINDOW 3 24 44 Left 2
SYMATTR Value SINE(0 2 1000)
SYMATTR Value2 AC 1
SYMATTR InstName V6
SYMBOL voltage 1520 416 R0
WINDOW 39 0 0 Left 0
WINDOW 3 24 44 Left 2
SYMATTR Value PULSE(0 5 0 0 0 5u 10u)
SYMATTR Value2 AC 1
SYMATTR InstName V5
SYMBOL Switches\\ADG1633 368 880 R0
SYMATTR InstName U8
SYMBOL res 2176 192 R90
WINDOW 0 0 56 VBottom 2
WINDOW 3 32 56 VTop 2
SYMATTR InstName R1
SYMATTR Value 2K
SYMBOL cap 2336 288 R0
SYMATTR InstName C1
SYMATTR Value 0.1µF
SYMBOL Opamps\\AD8541 704 144 R0
SYMATTR InstName U1
SYMBOL Opamps\\AD8541 304 256 M180
SYMATTR InstName U3
SYMBOL res -64 336 R0
SYMATTR InstName R2
SYMATTR Value 20K
SYMBOL res -96 160 R90
WINDOW 0 0 56 VBottom 2
WINDOW 3 32 56 VTop 2
SYMATTR InstName R3
SYMATTR Value 20K
TEXT 160 40 Left 2 ;.ac dec 100 1 1E6
TEXT 168 96 Left 2 !.tran 1
