Version 4
SHEET 1 2536 1924
WIRE 2064 -176 1920 -176
WIRE 1536 -112 304 -112
WIRE 2064 -80 2064 -176
WIRE 304 32 304 -112
WIRE 720 32 624 32
WIRE 896 32 784 32
WIRE 1536 112 1536 -112
WIRE 1616 112 1536 112
WIRE 1216 176 1104 176
WIRE 1472 176 1296 176
WIRE 304 192 304 112
WIRE 624 192 624 32
WIRE 624 192 304 192
WIRE 720 192 624 192
WIRE 896 208 896 32
WIRE 896 208 784 208
WIRE 1216 208 896 208
WIRE 1472 208 1472 176
WIRE 1616 208 1472 208
WIRE 1856 208 1808 208
WIRE 720 224 656 224
WIRE 304 240 304 192
WIRE 1264 256 1264 240
WIRE 656 288 656 224
WIRE 304 352 304 320
WIRE 1648 368 1648 320
WIRE 1776 368 1776 320
WIRE 1104 400 1104 176
WIRE 1248 400 1248 240
WIRE 1856 400 1856 208
FLAG 512 -320 0
FLAG 400 -320 0
FLAG 512 -400 -5V
FLAG 400 -400 +5V
FLAG 304 432 0
FLAG 1104 400 0
FLAG 1248 144 +5V
FLAG 1248 480 0
FLAG 1232 240 -5V
FLAG 752 240 -5V
FLAG 752 176 +5V
FLAG 656 288 0
FLAG 2064 -16 0
FLAG 1808 80 -5V
FLAG 1808 144 +5V
FLAG 1856 400 0
FLAG 1712 16 +5V
FLAG 1264 256 0
FLAG 1648 368 -5V
FLAG 1776 368 0
SYMBOL voltage 512 -416 R0
WINDOW 123 0 0 Left 0
WINDOW 39 0 0 Left 0
SYMATTR InstName V1
SYMATTR Value -5
SYMBOL voltage 400 -416 R0
WINDOW 123 0 0 Left 0
WINDOW 39 0 0 Left 0
SYMATTR InstName V2
SYMATTR Value 5
SYMBOL voltage 304 336 R0
WINDOW 39 0 0 Left 0
WINDOW 3 24 44 Left 2
SYMATTR Value SINE(0 2 1000)
SYMATTR Value2 AC 1
SYMATTR InstName V6
SYMBOL voltage 1248 384 R0
WINDOW 39 0 0 Left 0
WINDOW 3 24 44 Left 2
SYMATTR Value PULSE(0 5 0 0 0 5u 10u)
SYMATTR Value2 AC 1
SYMATTR InstName V5
SYMBOL Opamps\\AD8541 752 144 R0
SYMATTR InstName U1
SYMBOL cap 784 16 R90
WINDOW 0 0 32 VBottom 2
WINDOW 3 32 32 VTop 2
SYMATTR InstName C1
SYMATTR Value 10pF
SYMBOL res 1936 -192 R90
WINDOW 0 0 56 VBottom 2
WINDOW 3 32 56 VTop 2
SYMATTR InstName R3
SYMATTR Value 2K
SYMBOL cap 2048 -80 R0
SYMATTR InstName C2
SYMATTR Value 0.1µF
SYMBOL Comparators\\LT1711 1248 192 R0
SYMATTR InstName U4
SYMBOL Switches\\ADG1633 1712 160 R0
SYMATTR InstName U2
SYMBOL res 288 16 R0
SYMATTR InstName R1
SYMATTR Value 10K
SYMBOL res 288 224 R0
SYMATTR InstName R2
SYMATTR Value 10K
TEXT -72 -144 Left 2 ;.ac dec 100 1 1E6
TEXT -64 -88 Left 2 !.tran 0.01
