Version 4
SHEET 1 2404 1924
WIRE 208 -128 128 -128
WIRE 880 -128 288 -128
WIRE 128 0 128 -128
WIRE 208 0 128 0
WIRE 400 0 272 0
WIRE 0 144 -208 144
WIRE 128 144 128 0
WIRE 128 144 80 144
WIRE 208 144 128 144
WIRE 400 160 400 0
WIRE 400 160 272 160
WIRE 640 160 400 160
WIRE 880 160 880 -128
WIRE 880 160 800 160
WIRE 208 176 160 176
WIRE 640 208 432 208
WIRE 944 208 816 208
WIRE 160 224 160 176
WIRE 944 240 944 208
WIRE -208 288 -208 144
WIRE 432 352 432 208
FLAG 512 -320 0
FLAG 400 -320 0
FLAG 512 -400 -5V
FLAG 400 -400 +5V
FLAG -208 368 0
FLAG 240 128 +5V
FLAG 240 192 -5V
FLAG 720 112 +5V
FLAG 720 256 +5V
FLAG 160 224 0
FLAG 432 432 0
FLAG 944 320 0
SYMBOL voltage 512 -416 R0
WINDOW 123 0 0 Left 0
WINDOW 39 0 0 Left 0
SYMATTR InstName V1
SYMATTR Value -5
SYMBOL voltage 400 -416 R0
WINDOW 123 0 0 Left 0
WINDOW 39 0 0 Left 0
SYMATTR InstName V2
SYMATTR Value 5
SYMBOL voltage -208 272 R0
WINDOW 39 0 0 Left 0
WINDOW 3 24 44 Left 2
SYMATTR Value SINE(0 2 1000)
SYMATTR Value2 AC 1
SYMATTR InstName V6
SYMBOL Opamps\\AD8541 240 96 R0
SYMATTR InstName U1
SYMBOL Digital\\dflop 720 112 R0
SYMATTR InstName A1
SYMBOL cap 272 -16 R90
WINDOW 0 0 32 VBottom 2
WINDOW 3 32 32 VTop 2
SYMATTR InstName C1
SYMATTR Value 0.02µF
SYMBOL res 304 -144 R90
WINDOW 0 0 56 VBottom 2
WINDOW 3 32 56 VTop 2
SYMATTR InstName R1
SYMATTR Value 10K
SYMBOL res 96 128 R90
WINDOW 0 0 56 VBottom 2
WINDOW 3 32 56 VTop 2
SYMATTR InstName R2
SYMATTR Value 10K
SYMBOL voltage 432 336 R0
WINDOW 39 0 0 Left 0
WINDOW 3 24 44 Left 2
WINDOW 123 0 0 Left 0
SYMATTR Value PULSE(0 5 0 0 0 50u 100u)
SYMATTR InstName V3
SYMBOL res 928 224 R0
SYMATTR InstName R3
SYMATTR Value 10K
TEXT -240 456 Left 2 !.tran 1
