Version 4
SHEET 1 2432 1924
WIRE 672 64 608 64
WIRE 784 64 736 64
WIRE 2336 144 1456 144
WIRE 0 192 -112 192
WIRE 208 192 64 192
WIRE 352 192 288 192
WIRE 608 192 608 64
WIRE 608 192 352 192
WIRE 672 192 608 192
WIRE 784 208 784 64
WIRE 784 208 736 208
WIRE 1200 208 784 208
WIRE 1904 208 1456 208
WIRE 672 224 592 224
WIRE 2336 256 2336 144
WIRE 1680 272 1456 272
WIRE 352 288 352 192
WIRE -112 336 -112 192
WIRE 592 336 592 224
WIRE 1520 336 1456 336
WIRE 1104 400 1104 272
WIRE 1680 400 1680 272
WIRE 1520 432 1520 336
WIRE 352 560 352 368
WIRE 1904 560 1904 208
WIRE 1904 560 352 560
FLAG 512 -320 0
FLAG 400 -320 0
FLAG 512 -400 -5V
FLAG 400 -400 +5V
FLAG 704 176 +5V
FLAG 704 240 -5V
FLAG -112 416 0
FLAG 592 336 0
FLAG 1104 400 0
FLAG 1200 144 +5V
FLAG 1680 400 0
FLAG 1520 512 0
FLAG 2336 336 0
FLAG 1200 336 -5V
FLAG 1200 272 -5V
SYMBOL Comparators\\LT1394 1328 240 R0
SYMATTR InstName U2
SYMBOL voltage 512 -416 R0
WINDOW 123 0 0 Left 0
WINDOW 39 0 0 Left 0
SYMATTR InstName V1
SYMATTR Value -5
SYMBOL voltage 400 -416 R0
WINDOW 123 0 0 Left 0
WINDOW 39 0 0 Left 0
SYMATTR InstName V2
SYMATTR Value 5
SYMBOL cap 736 48 R90
WINDOW 0 0 32 VBottom 2
WINDOW 3 32 32 VTop 2
SYMATTR InstName C4
SYMATTR Value 10pF
SYMBOL voltage -112 320 R0
WINDOW 39 0 0 Left 0
WINDOW 3 24 44 Left 2
WINDOW 123 24 44 Left 2
SYMATTR Value SINE(0 2 1000)
SYMATTR InstName V6
SYMBOL voltage 1520 416 R0
WINDOW 39 0 0 Left 0
WINDOW 3 24 44 Left 2
SYMATTR Value PULSE(0 5 0 0 0 1.65u 3.3u)
SYMATTR Value2 AC 1
SYMATTR InstName V5
SYMBOL res 2320 240 R0
SYMATTR InstName R9
SYMATTR Value 1000K
SYMBOL Opamps\\AD8541 704 144 R0
SYMATTR InstName U3
SYMBOL res 336 272 R0
SYMATTR InstName R1
SYMATTR Value 10K
SYMBOL res 192 208 R270
WINDOW 0 32 56 VTop 2
WINDOW 3 0 56 VBottom 2
SYMATTR InstName R2
SYMATTR Value 10K
SYMBOL cap 64 176 R90
WINDOW 0 0 32 VBottom 2
WINDOW 3 32 32 VTop 2
SYMATTR InstName C1
SYMATTR Value 1µF
TEXT 160 40 Left 2 ;.ac dec 100 1 1E6
TEXT 168 96 Left 2 !.tran 1
